<?xml version="1.0" encoding="UTF-8"?>

<!-- generated on 07/15/20 11:17:41 by Eclipse SUMO netedit Version 1.5.0
<configuration xmlns:xsi="http://www.w3.org/2001/XMLSchema-instance" xsi:noNamespaceSchemaLocation="http://sumo.dlr.de/xsd/netconvertConfiguration.xsd">

    <input>
        <sumo-net-file value="C:\Users\Philip\Desktop\Skola\gradu\Route99_simulation%20-%20Bus%20priority\route99_1.net.xml"/>
    </input>

    <output>
        <output-file value="C:\Users\Philip\Desktop\Skola\gradu\Route99_simulation%20-%20Bus%20priority\route99_1.net.xml"/>
    </output>

    <processing>
        <geometry.min-radius.fix.railways value="false"/>
        <geometry.max-grade.fix value="false"/>
        <offset.disable-normalization value="true"/>
        <lefthand value="false"/>
    </processing>

    <junctions>
        <no-turnarounds value="true"/>
        <junctions.corner-detail value="5"/>
        <junctions.limit-turn-speed value="5.5"/>
        <rectangular-lane-cut value="false"/>
    </junctions>

    <pedestrian>
        <walkingareas value="false"/>
    </pedestrian>

    <report>
        <aggregate-warnings value="5"/>
    </report>

</configuration>
-->

<net version="1.3" junctionCornerDetail="5" limitTurnSpeed="5.50" xmlns:xsi="http://www.w3.org/2001/XMLSchema-instance" xsi:noNamespaceSchemaLocation="http://sumo.dlr.de/xsd/net_file.xsd">

    <location netOffset="-567310.32,-6703100.45" convBoundary="297.85,131.44,4678.02,2189.62" origBoundary="22.224291,60.457691,22.311695,60.478255" projParameter="+proj=utm +zone=34 +ellps=WGS84 +datum=WGS84 +units=m +no_defs"/>

    <type id="highway.bridleway" priority="1" numLanes="1" speed="2.78" allow="pedestrian" oneway="1" width="2.00"/>
    <type id="highway.bus_guideway" priority="1" numLanes="1" speed="27.78" allow="bus" oneway="1"/>
    <type id="highway.cycleway" priority="1" numLanes="1" speed="8.33" allow="bicycle" oneway="0" width="1.00"/>
    <type id="highway.footway" priority="1" numLanes="1" speed="2.78" allow="pedestrian" oneway="1" width="2.00"/>
    <type id="highway.ford" priority="1" numLanes="1" speed="2.78" allow="army" oneway="0"/>
    <type id="highway.living_street" priority="2" numLanes="1" speed="2.78" disallow="tram rail_urban rail rail_electric rail_fast ship" oneway="0"/>
    <type id="highway.motorway" priority="14" numLanes="2" speed="39.44" allow="private emergency authority army vip passenger hov taxi bus coach delivery truck trailer motorcycle evehicle custom1 custom2" oneway="1"/>
    <type id="highway.motorway_link" priority="9" numLanes="1" speed="22.22" allow="private emergency authority army vip passenger hov taxi bus coach delivery truck trailer motorcycle evehicle custom1 custom2" oneway="1"/>
    <type id="highway.path" priority="1" numLanes="1" speed="2.78" allow="pedestrian bicycle" oneway="1" width="2.00"/>
    <type id="highway.pedestrian" priority="1" numLanes="1" speed="2.78" allow="pedestrian" oneway="1" width="2.00"/>
    <type id="highway.primary" priority="12" numLanes="2" speed="27.78" disallow="tram rail_urban rail rail_electric rail_fast ship" oneway="0"/>
    <type id="highway.primary_link" priority="7" numLanes="1" speed="22.22" disallow="tram rail_urban rail rail_electric rail_fast ship" oneway="0"/>
    <type id="highway.raceway" priority="15" numLanes="2" speed="83.33" allow="vip" oneway="0"/>
    <type id="highway.residential" priority="3" numLanes="1" speed="13.89" disallow="tram rail_urban rail rail_electric rail_fast ship" oneway="0"/>
    <type id="highway.secondary" priority="11" numLanes="2" speed="27.78" disallow="tram rail_urban rail rail_electric rail_fast ship" oneway="0"/>
    <type id="highway.secondary_link" priority="6" numLanes="1" speed="22.22" disallow="tram rail_urban rail rail_electric rail_fast ship" oneway="0"/>
    <type id="highway.service" priority="1" numLanes="1" speed="5.56" allow="pedestrian delivery bicycle" oneway="0"/>
    <type id="highway.stairs" priority="1" numLanes="1" speed="1.39" allow="pedestrian" oneway="1" width="2.00"/>
    <type id="highway.step" priority="1" numLanes="1" speed="1.39" allow="pedestrian" oneway="1" width="2.00"/>
    <type id="highway.steps" priority="1" numLanes="1" speed="1.39" allow="pedestrian" oneway="1" width="2.00"/>
    <type id="highway.tertiary" priority="10" numLanes="1" speed="22.22" disallow="tram rail_urban rail rail_electric rail_fast ship" oneway="0"/>
    <type id="highway.tertiary_link" priority="5" numLanes="1" speed="22.22" disallow="tram rail_urban rail rail_electric rail_fast ship" oneway="0"/>
    <type id="highway.track" priority="1" numLanes="1" speed="5.56" disallow="tram rail_urban rail rail_electric rail_fast ship" oneway="0"/>
    <type id="highway.trunk" priority="13" numLanes="2" speed="27.78" disallow="pedestrian bicycle tram rail_urban rail rail_electric rail_fast ship" oneway="0"/>
    <type id="highway.trunk_link" priority="8" numLanes="1" speed="22.22" disallow="pedestrian bicycle tram rail_urban rail rail_electric rail_fast ship" oneway="0"/>
    <type id="highway.unclassified" priority="4" numLanes="1" speed="13.89" disallow="tram rail_urban rail rail_electric rail_fast ship" oneway="0"/>
    <type id="highway.unsurfaced" priority="1" numLanes="1" speed="8.33" disallow="tram rail_urban rail rail_electric rail_fast ship" oneway="0"/>
    <type id="railway.highspeed" priority="21" numLanes="1" speed="69.44" allow="rail_fast" oneway="1"/>
    <type id="railway.light_rail" priority="19" numLanes="1" speed="27.78" allow="rail_urban" oneway="1"/>
    <type id="railway.preserved" priority="16" numLanes="1" speed="27.78" allow="rail" oneway="1"/>
    <type id="railway.rail" priority="20" numLanes="1" speed="44.44" allow="rail" oneway="1"/>
    <type id="railway.subway" priority="18" numLanes="1" speed="27.78" allow="rail_urban" oneway="1"/>
    <type id="railway.tram" priority="17" numLanes="1" speed="13.89" allow="tram" oneway="1"/>

    <edge id=":1281984847_0" function="internal">
        <lane id=":1281984847_0_0" index="0" disallow="tram rail_urban rail rail_electric rail_fast ship" speed="13.89" length="0.53" shape="1740.29,2057.96 1740.44,2057.90 1740.54,2057.87 1740.65,2057.85 1740.81,2057.84"/>
    </edge>
    <edge id=":1281984851_0" function="internal">
        <lane id=":1281984851_0_0" index="0" disallow="tram rail_urban rail rail_electric rail_fast ship" speed="13.89" length="0.47" shape="1747.57,2086.87 1747.44,2086.91 1747.35,2086.94 1747.25,2086.96 1747.11,2086.97"/>
    </edge>
    <edge id=":17807309_0" function="internal">
        <lane id=":17807309_0_0" index="0" disallow="tram rail_urban rail rail_electric rail_fast ship" speed="13.89" length="8.03" shape="1918.86,2040.42 1911.03,2042.19"/>
    </edge>
    <edge id=":17807309_1" function="internal">
        <lane id=":17807309_1_0" index="0" disallow="tram rail_urban rail rail_electric rail_fast ship" speed="13.89" length="8.34" shape="1910.36,2039.07 1912.63,2038.07 1913.87,2036.67 1915.11,2035.25 1917.37,2034.19"/>
        <lane id=":17807309_1_1" index="1" disallow="tram rail_urban rail rail_electric rail_fast ship" speed="13.89" length="8.34" shape="1910.36,2039.07 1918.11,2037.30"/>
    </edge>
    <edge id=":195066716_0" function="internal">
        <lane id=":195066716_0_0" index="0" disallow="tram rail_urban rail rail_electric rail_fast ship" speed="13.89" length="8.01" shape="2132.36,1978.93 2124.71,1981.30"/>
    </edge>
    <edge id=":195066716_1" function="internal">
        <lane id=":195066716_1_0" index="0" disallow="tram rail_urban rail rail_electric rail_fast ship" speed="13.89" length="8.39" shape="2123.77,1978.24 2125.97,1977.04 2127.12,1975.54 2128.26,1974.04 2130.45,1972.83"/>
        <lane id=":195066716_1_1" index="1" disallow="tram rail_urban rail rail_electric rail_fast ship" speed="13.89" length="8.39" shape="2123.77,1978.24 2131.41,1975.88"/>
    </edge>
    <edge id=":195067269_0" function="internal">
        <lane id=":195067269_0_0" index="0" disallow="tram rail_urban rail rail_electric rail_fast ship" speed="13.89" length="0.10" shape="2020.90,2012.98 2020.82,2013.00"/>
    </edge>
    <edge id=":195067269_1" function="internal">
        <lane id=":195067269_1_0" index="0" disallow="tram rail_urban rail rail_electric rail_fast ship" speed="13.89" length="0.10" shape="2020.04,2009.90 2019.96,2009.92"/>
    </edge>
    <edge id=":21402440_0" function="internal">
        <lane id=":21402440_0_0" index="0" speed="13.89" length="12.63" shape="3218.47,1548.39 3218.18,1544.77 3218.25,1542.23 3218.02,1539.77 3216.84,1536.42"/>
        <lane id=":21402440_0_1" index="1" speed="13.89" length="12.63" shape="3221.63,1547.91 3221.31,1544.04 3221.33,1541.32 3221.04,1538.69 3219.76,1535.10"/>
    </edge>
    <edge id=":21402440_2" function="internal">
        <lane id=":21402440_2_0" index="0" disallow="tram rail_urban rail rail_electric rail_fast ship" speed="13.89" length="14.76" shape="3226.59,1532.02 3228.51,1536.30 3230.29,1539.37 3232.15,1541.88 3234.34,1544.48"/>
    </edge>
    <edge id=":21402440_3" function="internal">
        <lane id=":21402440_3_0" index="0" speed="13.89" length="14.75" shape="3226.59,1532.02 3228.35,1536.19 3229.51,1539.07 3230.34,1542.05 3231.12,1546.49"/>
        <lane id=":21402440_3_1" index="1" speed="13.89" length="14.75" shape="3226.59,1532.02 3227.84,1536.24 3227.92,1539.31 3227.67,1542.47 3227.96,1546.96"/>
        <lane id=":21402440_3_2" index="2" speed="13.89" length="14.75" shape="3223.67,1533.34 3225.33,1537.26 3226.43,1539.98 3227.22,1542.78 3227.96,1546.96"/>
        <lane id=":21402440_3_3" index="3" speed="13.89" length="14.75" shape="3223.67,1533.34 3224.82,1537.32 3224.84,1540.22 3224.55,1543.20 3224.79,1547.44"/>
    </edge>
    <edge id=":21855961_0" function="internal">
        <lane id=":21855961_0_0" index="0" disallow="tram rail_urban rail rail_electric rail_fast ship" speed="13.89" length="8.05" shape="403.34,1661.83 401.38,1660.30 399.57,1659.80 397.82,1659.26 396.05,1657.59"/>
        <lane id=":21855961_0_1" index="1" disallow="tram rail_urban rail rail_electric rail_fast ship" speed="13.89" length="8.05" shape="403.34,1661.83 401.87,1660.10 400.90,1658.89 399.98,1657.63 398.69,1655.77"/>
        <lane id=":21855961_0_2" index="2" disallow="tram rail_urban rail rail_electric rail_fast ship" speed="13.89" length="8.05" shape="403.34,1661.83 402.24,1659.76 402.21,1657.98 402.24,1656.16 401.32,1653.95"/>
        <lane id=":21855961_0_3" index="3" disallow="tram rail_urban rail rail_electric rail_fast ship" speed="13.89" length="8.05" shape="405.77,1659.75 403.88,1658.29 402.11,1657.85 400.40,1657.37 398.69,1655.77"/>
        <lane id=":21855961_0_4" index="4" disallow="tram rail_urban rail rail_electric rail_fast ship" speed="13.89" length="8.05" shape="405.77,1659.75 404.37,1658.09 403.44,1656.94 402.56,1655.74 401.32,1653.95"/>
        <lane id=":21855961_0_5" index="5" disallow="tram rail_urban rail rail_electric rail_fast ship" speed="13.89" length="8.05" shape="405.77,1659.75 404.73,1657.76 404.75,1656.03 404.82,1654.26 403.95,1652.13"/>
    </edge>
    <edge id=":21855963_0" function="internal">
        <lane id=":21855963_0_0" index="0" disallow="tram rail_urban rail rail_electric rail_fast ship" speed="13.89" length="8.20" shape="625.20,1814.65 622.85,1814.08 621.15,1814.06 619.45,1814.02 617.11,1813.41"/>
        <lane id=":21855963_0_1" index="1" disallow="tram rail_urban rail rail_electric rail_fast ship" speed="13.89" length="8.20" shape="625.20,1814.65 623.03,1813.62 621.71,1812.56 620.39,1811.49 618.23,1810.41"/>
        <lane id=":21855963_0_2" index="2" disallow="tram rail_urban rail rail_electric rail_fast ship" speed="13.89" length="8.20" shape="626.27,1811.64 623.93,1811.07 622.24,1811.05 620.55,1811.01 618.23,1810.41"/>
        <lane id=":21855963_0_3" index="3" disallow="tram rail_urban rail rail_electric rail_fast ship" speed="13.89" length="8.20" shape="626.27,1811.64 624.11,1810.61 622.80,1809.55 621.49,1808.48 619.35,1807.42"/>
    </edge>
    <edge id=":21855971_0" function="internal">
        <lane id=":21855971_0_0" index="0" disallow="tram rail_urban rail rail_electric rail_fast ship" speed="13.89" length="7.83" shape="534.60,1827.66 534.13,1835.48"/>
    </edge>
    <edge id=":21855971_1" function="internal">
        <lane id=":21855971_1_0" index="0" disallow="tram rail_urban rail rail_electric rail_fast ship" speed="13.89" length="8.39" shape="530.93,1835.36 530.53,1832.86 529.51,1831.26 528.52,1829.65 528.22,1827.16"/>
        <lane id=":21855971_1_1" index="1" disallow="tram rail_urban rail rail_electric rail_fast ship" speed="13.89" length="8.39" shape="530.93,1835.36 531.41,1827.41"/>
    </edge>
    <edge id=":2422392562_0" function="internal">
        <lane id=":2422392562_0_0" index="0" disallow="tram rail_urban rail rail_electric rail_fast ship" speed="13.89" length="8.16" shape="3692.18,1837.11 3691.18,1834.84 3689.82,1833.55 3688.52,1832.24 3687.73,1829.94"/>
        <lane id=":2422392562_0_1" index="1" disallow="tram rail_urban rail rail_electric rail_fast ship" speed="13.89" length="8.16" shape="3692.18,1837.11 3691.71,1834.88 3691.42,1833.35 3691.19,1831.80 3690.90,1829.54"/>
    </edge>
    <edge id=":2422392562_2" function="internal">
        <lane id=":2422392562_2_0" index="0" disallow="tram rail_urban rail rail_electric rail_fast ship" speed="13.89" length="7.40" shape="3694.08,1829.15 3694.35,1831.32 3694.57,1832.81 3694.85,1834.29 3695.31,1836.43"/>
    </edge>
    <edge id=":262537979_0" function="internal">
        <lane id=":262537979_0_0" index="0" disallow="tram rail_urban rail rail_electric rail_fast ship" speed="13.89" length="0.20" shape="3741.19,1692.37 3741.13,1692.38 3741.09,1692.39 3741.05,1692.40 3741.00,1692.42"/>
    </edge>
    <edge id=":262537979_1" function="internal">
        <lane id=":262537979_1_0" index="0" disallow="tram rail_urban rail rail_electric rail_fast ship" speed="13.89" length="0.59" shape="3740.07,1689.36 3740.24,1689.31 3740.35,1689.27 3740.47,1689.25 3740.64,1689.22"/>
    </edge>
    <edge id=":262840656_0" function="internal">
        <lane id=":262840656_0_0" index="0" disallow="tram rail_urban rail rail_electric rail_fast ship" speed="13.89" length="11.85" shape="3369.65,1619.16 3366.59,1618.56 3364.12,1618.42 3361.49,1618.21 3357.95,1617.39"/>
        <lane id=":262840656_0_1" index="1" disallow="tram rail_urban rail rail_electric rail_fast ship" speed="13.89" length="11.85" shape="3369.65,1619.16 3366.73,1618.08 3364.58,1616.89 3362.27,1615.63 3358.89,1614.33"/>
    </edge>
    <edge id=":297631017_0" function="internal">
        <lane id=":297631017_0_0" index="0" disallow="tram rail_urban rail rail_electric rail_fast ship" speed="13.89" length="8.22" shape="3729.83,1695.94 3727.79,1697.27 3726.83,1698.84 3725.89,1700.44 3723.90,1701.88"/>
        <lane id=":297631017_0_1" index="1" disallow="tram rail_urban rail rail_electric rail_fast ship" speed="13.89" length="8.22" shape="3729.83,1695.94 3722.59,1698.96"/>
    </edge>
    <edge id=":297631017_2" function="internal">
        <lane id=":297631017_2_0" index="0" disallow="tram rail_urban rail rail_electric rail_fast ship" speed="13.89" length="8.00" shape="3721.29,1696.04 3728.67,1692.95"/>
    </edge>
    <edge id=":297631476_0" function="internal">
        <lane id=":297631476_0_0" index="0" disallow="tram rail_urban rail rail_electric rail_fast ship" speed="13.89" length="0.31" shape="4280.19,1659.89 4279.88,1659.91"/>
    </edge>
    <edge id=":297631476_1" function="internal">
        <lane id=":297631476_1_0" index="0" disallow="tram rail_urban rail rail_electric rail_fast ship" speed="13.89" length="0.27" shape="4279.73,1656.71 4280.00,1656.69"/>
    </edge>
    <edge id=":297631482_0" function="internal">
        <lane id=":297631482_0_0" index="0" disallow="tram rail_urban rail rail_electric rail_fast ship" speed="13.89" length="0.31" shape="3883.41,1680.29 3883.10,1680.31"/>
    </edge>
    <edge id=":297631482_1" function="internal">
        <lane id=":297631482_1_0" index="0" disallow="tram rail_urban rail rail_electric rail_fast ship" speed="13.89" length="0.29" shape="3882.96,1677.11 3883.25,1677.09"/>
    </edge>
    <edge id=":297631493_0" function="internal">
        <lane id=":297631493_0_0" index="0" disallow="tram rail_urban rail rail_electric rail_fast ship" speed="13.89" length="0.31" shape="3984.65,1675.16 3984.34,1675.18"/>
    </edge>
    <edge id=":297631493_1" function="internal">
        <lane id=":297631493_1_0" index="0" disallow="tram rail_urban rail rail_electric rail_fast ship" speed="13.89" length="0.25" shape="3984.18,1671.98 3984.43,1671.96"/>
    </edge>
    <edge id=":298064990_0" function="internal">
        <lane id=":298064990_0_0" index="0" disallow="tram rail_urban rail rail_electric rail_fast ship" speed="13.89" length="8.41" shape="3237.07,1660.68 3236.10,1658.33 3234.72,1657.01 3233.37,1655.68 3232.45,1653.32"/>
        <lane id=":298064990_0_1" index="1" disallow="tram rail_urban rail rail_electric rail_fast ship" speed="13.89" length="8.41" shape="3237.07,1660.68 3235.60,1652.78"/>
        <lane id=":298064990_0_2" index="2" disallow="tram rail_urban rail rail_electric rail_fast ship" speed="13.89" length="8.41" shape="3240.21,1660.05 3239.24,1657.73 3237.87,1656.42 3236.52,1655.11 3235.60,1652.78"/>
        <lane id=":298064990_0_3" index="3" disallow="tram rail_urban rail rail_electric rail_fast ship" speed="13.89" length="8.41" shape="3240.21,1660.05 3238.76,1652.23"/>
    </edge>
    <edge id=":298064990_4" function="internal">
        <lane id=":298064990_4_0" index="0" disallow="tram rail_urban rail rail_electric rail_fast ship" speed="13.89" length="7.83" shape="3245.29,1651.10 3246.49,1658.80"/>
        <lane id=":298064990_4_1" index="1" disallow="tram rail_urban rail rail_electric rail_fast ship" speed="13.89" length="7.83" shape="3242.13,1651.65 3243.35,1659.42"/>
    </edge>
    <edge id=":307632196_0" function="internal">
        <lane id=":307632196_0_0" index="0" disallow="tram rail_urban rail rail_electric rail_fast ship" speed="13.89" length="6.22" shape="3363.33,1604.80 3369.30,1606.46"/>
        <lane id=":307632196_0_1" index="1" disallow="tram rail_urban rail rail_electric rail_fast ship" speed="13.89" length="6.22" shape="3362.44,1607.88 3368.46,1609.55"/>
    </edge>
    <edge id=":308668799_0" function="internal">
        <lane id=":308668799_0_0" index="0" disallow="tram rail_urban rail rail_electric rail_fast ship" speed="13.89" length="6.93" shape="4632.63,1539.12 4632.07,1537.20 4630.90,1536.15 4629.63,1535.12 4628.75,1533.23"/>
        <lane id=":308668799_0_1" index="1" disallow="tram rail_urban rail rail_electric rail_fast ship" speed="13.89" length="6.93" shape="4632.63,1539.12 4632.56,1537.17 4632.46,1535.84 4632.26,1534.52 4631.89,1532.61"/>
    </edge>
    <edge id=":308668799_2" function="internal">
        <lane id=":308668799_2_0" index="0" disallow="tram rail_urban rail rail_electric rail_fast ship" speed="13.89" length="7.08" shape="4635.03,1531.99 4635.43,1534.06 4635.64,1535.48 4635.75,1536.91 4635.83,1539.01"/>
    </edge>
    <edge id=":3225439670_0" function="internal">
        <lane id=":3225439670_0_0" index="0" disallow="tram rail_urban rail rail_electric rail_fast ship" speed="13.89" length="0.25" shape="3094.45,1772.73 3094.32,1772.95"/>
    </edge>
    <edge id=":3225439670_1" function="internal">
        <lane id=":3225439670_1_0" index="0" disallow="tram rail_urban rail rail_electric rail_fast ship" speed="13.89" length="0.31" shape="3091.56,1771.34 3091.72,1771.07"/>
    </edge>
    <edge id=":333_0" function="internal">
        <lane id=":333_0_0" index="0" disallow="tram rail_urban rail rail_electric rail_fast ship" speed="8.64" length="15.70" shape="361.49,1607.50 359.43,1605.95 356.35,1605.77 352.24,1606.98 347.10,1609.56"/>
    </edge>
    <edge id=":333_1" function="internal">
        <lane id=":333_1_0" index="0" disallow="tram rail_urban rail rail_electric rail_fast ship" speed="13.89" length="20.33" shape="364.20,1605.79 360.90,1600.69 358.93,1596.98 357.15,1593.21 354.39,1587.90"/>
        <lane id=":333_1_1" index="1" disallow="tram rail_urban rail rail_electric rail_fast ship" speed="13.89" length="20.33" shape="366.91,1604.08 363.65,1599.03 361.71,1595.39 359.94,1591.66 357.20,1586.36"/>
    </edge>
    <edge id=":333_3" function="internal">
        <lane id=":333_3_0" index="0" disallow="tram rail_urban rail rail_electric rail_fast ship" speed="9.50" length="26.02" shape="369.61,1602.37 366.82,1596.27 367.57,1591.24 371.86,1587.25 379.69,1584.32"/>
    </edge>
    <edge id=":333_4" function="internal">
        <lane id=":333_4_0" index="0" disallow="tram rail_urban rail rail_electric rail_fast ship" speed="7.86" length="11.14" shape="371.06,1578.73 372.96,1581.65 375.03,1583.55 377.27,1584.44 379.69,1584.32"/>
    </edge>
    <edge id=":333_5" function="internal">
        <lane id=":333_5_0" index="0" disallow="tram rail_urban rail rail_electric rail_fast ship" speed="13.89" length="19.50" shape="368.26,1580.27 378.71,1596.62"/>
        <lane id=":333_5_1" index="1" disallow="tram rail_urban rail rail_electric rail_fast ship" speed="13.89" length="19.50" shape="365.45,1581.81 376.00,1598.33"/>
    </edge>
    <edge id=":333_7" function="internal">
        <lane id=":333_7_0" index="0" disallow="tram rail_urban rail rail_electric rail_fast ship" speed="12.28" length="33.79" shape="362.65,1583.36 364.29,1589.93 362.24,1596.49 356.51,1603.03 347.10,1609.56"/>
    </edge>
    <edge id=":333_8" function="internal">
        <lane id=":333_8_0" index="0" disallow="tram rail_urban rail rail_electric rail_fast ship" speed="9.31" length="19.23" shape="342.29,1601.26 348.57,1597.22 352.69,1593.64 354.63,1590.54 354.39,1587.90"/>
    </edge>
    <edge id=":333_9" function="internal">
        <lane id=":333_9_0" index="0" disallow="tram rail_urban rail rail_electric rail_fast ship" speed="12.50" length="40.90" shape="343.89,1604.03 354.28,1597.94 364.84,1591.81 373.88,1586.86 379.69,1584.32"/>
    </edge>
    <edge id=":333_10" function="internal">
        <lane id=":333_10_0" index="0" disallow="tram rail_urban rail rail_electric rail_fast ship" speed="12.19" length="33.29" shape="345.50,1606.80 357.24,1600.56 366.24,1597.07 372.49,1596.32 376.00,1598.33"/>
    </edge>
    <edge id=":33329826_0" function="internal">
        <lane id=":33329826_0_0" index="0" disallow="tram rail_urban rail rail_electric rail_fast ship" speed="11.11" length="0.31" shape="4625.06,180.25 4624.91,180.52"/>
    </edge>
    <edge id=":33329826_1" function="internal">
        <lane id=":33329826_1_0" index="0" disallow="tram rail_urban rail rail_electric rail_fast ship" speed="11.11" length="0.29" shape="4622.14,178.91 4622.28,178.67"/>
    </edge>
    <edge id=":334_0" function="internal">
        <lane id=":334_0_0" index="0" disallow="tram rail_urban rail rail_electric rail_fast ship" speed="7.60" length="15.61" shape="544.53,1784.41 541.92,1784.19 539.84,1786.03 538.28,1789.91 537.26,1795.85"/>
    </edge>
    <edge id=":334_1" function="internal">
        <lane id=":334_1_0" index="0" disallow="tram rail_urban rail rail_electric rail_fast ship" speed="13.89" length="28.35" shape="544.53,1784.41 536.54,1780.30 531.04,1776.36 526.39,1772.48 520.97,1768.54"/>
        <lane id=":334_1_1" index="1" disallow="tram rail_urban rail rail_electric rail_fast ship" speed="13.89" length="28.35" shape="545.98,1781.55 538.09,1777.49 532.67,1773.60 528.08,1769.75 522.68,1765.83"/>
    </edge>
    <edge id=":334_3" function="internal">
        <lane id=":334_3_0" index="0" disallow="tram rail_urban rail rail_electric rail_fast ship" speed="13.89" length="34.04" shape="547.43,1778.69 542.57,1774.91 539.42,1768.51 537.97,1759.51 538.24,1747.89"/>
    </edge>
    <edge id=":334_4" function="internal">
        <lane id=":334_4_0" index="0" disallow="tram rail_urban rail rail_electric rail_fast ship" speed="10.14" length="16.59" shape="547.80,1748.71 548.02,1752.84 549.44,1756.43 552.07,1759.48 555.89,1761.99"/>
    </edge>
    <edge id=":334_5" function="internal">
        <lane id=":334_5_0" index="0" disallow="tram rail_urban rail rail_electric rail_fast ship" speed="13.89" length="47.98" shape="544.61,1748.44 537.26,1795.85"/>
    </edge>
    <edge id=":334_6" function="internal">
        <lane id=":334_6_0" index="0" disallow="tram rail_urban rail rail_electric rail_fast ship" speed="10.25" length="14.60" shape="541.42,1748.16 539.68,1758.01 537.64,1762.14"/>
    </edge>
    <edge id=":334_14" function="internal">
        <lane id=":334_14_0" index="0" disallow="tram rail_urban rail rail_electric rail_fast ship" speed="10.25" length="18.05" shape="537.64,1762.14 536.13,1765.21 530.54,1768.30 522.68,1765.83"/>
    </edge>
    <edge id=":334_7" function="internal">
        <lane id=":334_7_0" index="0" disallow="tram rail_urban rail rail_electric rail_fast ship" speed="5.71" length="9.19" shape="532.08,1750.92 534.56,1752.08 536.41,1751.96 537.64,1750.56 538.24,1747.89"/>
    </edge>
    <edge id=":334_8" function="internal">
        <lane id=":334_8_0" index="0" disallow="tram rail_urban rail rail_electric rail_fast ship" speed="13.89" length="26.46" shape="532.08,1750.92 539.20,1755.01 544.78,1757.43 549.96,1759.36 555.89,1761.99"/>
        <lane id=":334_8_1" index="1" disallow="tram rail_urban rail rail_electric rail_fast ship" speed="13.89" length="26.46" shape="530.37,1753.63 537.59,1757.78 543.25,1760.24 548.49,1762.20 554.45,1764.84"/>
    </edge>
    <edge id=":334_10" function="internal">
        <lane id=":334_10_0" index="0" disallow="tram rail_urban rail rail_electric rail_fast ship" speed="13.89" length="42.16" shape="528.67,1756.34 533.72,1761.71 536.84,1770.09 538.02,1781.47 537.26,1795.85"/>
    </edge>
    <edge id=":334_11" function="internal">
        <lane id=":334_11_0" index="0" disallow="tram rail_urban rail rail_electric rail_fast ship" speed="13.89" length="30.00" shape="530.90,1795.16 531.06,1786.35 529.45,1778.98 526.09,1773.04 520.97,1768.54"/>
    </edge>
    <edge id=":334_12" function="internal">
        <lane id=":334_12_0" index="0" disallow="tram rail_urban rail rail_electric rail_fast ship" speed="13.89" length="47.84" shape="530.90,1795.16 538.24,1747.89"/>
    </edge>
    <edge id=":334_13" function="internal">
        <lane id=":334_13_0" index="0" disallow="tram rail_urban rail rail_electric rail_fast ship" speed="12.13" length="23.94" shape="534.08,1795.51 536.30,1781.18 539.31,1772.22"/>
    </edge>
    <edge id=":334_15" function="internal">
        <lane id=":334_15_0" index="0" disallow="tram rail_urban rail rail_electric rail_fast ship" speed="12.13" length="19.39" shape="539.31,1772.22 540.05,1770.00 545.90,1763.91 554.45,1764.84"/>
    </edge>
    <edge id=":336_0" function="internal">
        <lane id=":336_0_0" index="0" disallow="tram rail_urban rail rail_electric rail_fast ship" speed="8.32" length="15.05" shape="1411.91,2120.40 1411.18,2116.20 1409.38,2113.22 1406.53,2111.45 1402.61,2110.90"/>
    </edge>
    <edge id=":336_1" function="internal">
        <lane id=":336_1_0" index="0" disallow="tram rail_urban rail rail_electric rail_fast ship" speed="13.89" length="21.81" shape="1411.91,2120.40 1411.83,2098.59"/>
    </edge>
    <edge id=":336_2" function="internal">
        <lane id=":336_2_0" index="0" disallow="tram rail_urban rail rail_electric rail_fast ship" speed="10.18" length="7.85" shape="1415.11,2120.26 1415.72,2113.91 1416.40,2112.60"/>
    </edge>
    <edge id=":336_12" function="internal">
        <lane id=":336_12_0" index="0" disallow="tram rail_urban rail rail_electric rail_fast ship" speed="10.18" length="15.26" shape="1416.40,2112.60 1418.15,2109.23 1422.42,2106.23 1428.52,2104.89"/>
    </edge>
    <edge id=":336_3" function="internal">
        <lane id=":336_3_0" index="0" disallow="tram rail_urban rail rail_electric rail_fast ship" speed="8.25" length="14.82" width="5.00" shape="1428.97,2111.28 1424.59,2112.10 1421.51,2113.84 1419.73,2116.51 1419.26,2120.10"/>
    </edge>
    <edge id=":336_4" function="internal">
        <lane id=":336_4_0" index="0" disallow="tram rail_urban rail rail_electric rail_fast ship" speed="13.89" length="26.36" shape="1428.97,2111.28 1402.61,2110.90"/>
    </edge>
    <edge id=":336_5" function="internal">
        <lane id=":336_5_0" index="0" disallow="tram rail_urban rail rail_electric rail_fast ship" speed="9.77" length="12.64" shape="1428.74,2108.09 1421.57,2107.92 1416.36,2106.29"/>
    </edge>
    <edge id=":336_13" function="internal">
        <lane id=":336_13_0" index="0" disallow="tram rail_urban rail rail_electric rail_fast ship" speed="9.77" length="9.26" shape="1416.36,2106.29 1413.11,2103.18 1411.83,2098.59"/>
    </edge>
    <edge id=":336_6" function="internal">
        <lane id=":336_6_0" index="0" disallow="tram rail_urban rail rail_electric rail_fast ship" speed="7.90" length="13.94" shape="1418.22,2098.23 1419.02,2101.41 1421.00,2103.58 1424.17,2104.74 1428.52,2104.89"/>
    </edge>
    <edge id=":336_7" function="internal">
        <lane id=":336_7_0" index="0" disallow="tram rail_urban rail rail_electric rail_fast ship" speed="13.89" length="21.90" width="5.00" shape="1418.22,2098.23 1419.26,2120.10"/>
    </edge>
    <edge id=":336_8" function="internal">
        <lane id=":336_8_0" index="0" disallow="tram rail_urban rail rail_electric rail_fast ship" speed="9.32" length="7.53" shape="1415.02,2098.41 1414.51,2103.81 1413.46,2105.63"/>
    </edge>
    <edge id=":336_14" function="internal">