<additional>
<!--333-->    
    <e1Detector id="333E_B1" lane='E2_0' pos='-60' freq='1' file='det.out.xml'/>
    <e1Detector id="333E_B2" lane='E2_1' pos='-60' freq='1' file='det.out.xml'/> 
    <e1Detector id="333E_B3" lane='E2_2' pos='-60' freq='1' file='det.out.xml'/>  
    <e1Detector id="333E_A1" lane='E3_0' pos='5' freq='1' file='det.out.xml'/>
    <e1Detector id="333E_A2" lane='E3_1' pos='5' freq='1' file='det.out.xml'/>

    <e1Detector id="333W_B1" lane='W58_0' pos='-1' freq='1' file='det.out.xml'/>
    <e1Detector id="333W_B2" lane='W58_1' pos='-1' freq='1' file='det.out.xml'/> 
    <e1Detector id="333W_A1" lane='W60_0' pos='5' freq='1' file='det.out.xml'/>  
    <e1Detector id="333W_A2" lane='W60_1' pos='5' freq='1' file='det.out.xml'/>

<!--334-->
    <e1Detector id="334E_B1" lane='E6_0' pos='-59.6' freq='1' file='det.out.xml'/>
    <e1Detector id="334E_B2" lane='E6_1' pos='-59.6' freq='1' file='det.out.xml'/>
    <e1Detector id="334E_A1" lane='E7_0' pos='5' freq='1' file='det.out.xml'/>
    <e1Detector id="334E_A2" lane='E7_1' pos='5' freq='1' file='det.out.xml'/>
    
    <e1Detector id="334W_B1" lane='W57_0' pos='-60' freq='1' file='det.out.xml'/>
    <e1Detector id="334W_B2" lane='W57_1' pos='-60' freq='1' file='det.out.xml'/>
    <e1Detector id="334W_A1" lane='W58_0' pos='5' freq='1' file='det.out.xml'/>
    <e1Detector id="334W_A2" lane='W58_1' pos='5' freq='1' file='det.out.xml'/>
<!--336-->
    <e1Detector id="336E_B1" lane='E11_0' pos='-26' freq='1' file='det.out.xml'/>
    <e1Detector id="336E_A1" lane='E13_0' pos='5' freq='1' file='det.out.xml'/>

    <e1Detector id="336W_B1" lane='W49_0' pos='-5' freq='1' file='det.out.xml'/>
    <e1Detector id="336W_A1" lane='W51_0' pos='5' freq='1' file='det.out.xml'/>
<!--338-->
    <e1Detector id="338E_B1" lane='E18_0' pos='-15' freq='1' file='det.out.xml'/>
    <e1Detector id="338E_A1" lane='E20_0' pos='5' freq='1' file='det.out.xml'/>

    <e1Detector id="338W_B1" lane='W42_0' pos='-5' freq='1' file='det.out.xml'/>
    <e1Detector id="338W_A1" lane='W44_0' pos='5' freq='1' file='det.out.xml'/>

<!--405-->
    <e1Detector id="405E_B1" lane='E22_0' pos='-8' freq='1' file='det.out.xml'/>
    <e1Detector id="405E_B2" lane='E22_1' pos='-8' freq='1' file='det.out.xml'/>
    <e1Detector id="405E_A1" lane='E24_0' pos='5' freq='1' file='det.out.xml'/>

    <e1Detector id="405W_B1" lane='W37_0' pos='-12' freq='1' file='det.out.xml'/>
    <e1Detector id="405W_A1" lane='W40_0' pos='5' freq='1' file='det.out.xml'/>
<!--409-->
    <e1Detector id="409E_B1" lane='E30_0' pos='-25' freq='1' file='det.out.xml'/>
    <e1Detector id="409E_A1" lane='E33_0' pos='5' freq='1' file='det.out.xml'/>
    <e1Detector id="409E_A2" lane='E33_1' pos='5' freq='1' file='det.out.xml'/>

    <e1Detector id="409W_B1" lane='W31_0' pos='-60' freq='1' file='det.out.xml'/>
    <e1Detector id="409W_B2" lane='W31_1' pos='-60' freq='1' file='det.out.xml'/>
    <e1Detector id="409W_A1" lane='W32_0' pos='5' freq='1' file='det.out.xml'/>
    <e1Detector id="409W_A2" lane='W32_1' pos='5' freq='1' file='det.out.xml'/>
<!--410-->
    <e1Detector id="410E_B1" lane='E36_0' pos='-25' freq='1' file='det.out.xml'/>
    <e1Detector id="410E_A1" lane='E38_0' pos='5' freq='1' file='det.out.xml'/>

    <e1Detector id="410W_B1" lane='W22_0' pos='-27' freq='1' file='det.out.xml'/>
    <e1Detector id="410W_A1" lane='W26_0' pos='5' freq='1' file='det.out.xml'/>
<!--420-->
    <e1Detector id="420E_B1" lane='E52_0' pos='-60' freq='1' file='det.out.xml'/>
    <e1Detector id="420E_B2" lane='E52_1' pos='-60' freq='1' file='det.out.xml'/>
    <e1Detector id="420E_A1" lane='E53_0' pos='5' freq='1' file='det.out.xml'/>

    <e1Detector id="420W_B1" lane='W9.5_0' pos='-60' freq='1' file='det.out.xml'/>
    <e1Detector id="420W_B2" lane='W9.5_1' pos='-60' freq='1' file='det.out.xml'/>
    <e1Detector id="420W_A1" lane='W10_0' pos='5' freq='1' file='det.out.xml'/>

</additional>